Version 4
SHEET 1 1096 948
WIRE -752 16 -848 16
WIRE 528 16 -752 16
WIRE -752 144 -752 16
WIRE 528 192 528 16
WIRE 576 192 528 192
WIRE 368 208 336 208
WIRE 464 208 464 144
WIRE 464 208 448 208
WIRE 480 208 464 208
WIRE 560 288 528 288
WIRE -752 320 -752 208
WIRE 80 320 -48 320
WIRE 288 320 144 320
WIRE 528 320 528 288
WIRE 336 400 336 208
WIRE 368 400 336 400
WIRE 464 400 464 368
WIRE 464 400 448 400
WIRE 480 400 464 400
WIRE -48 416 -48 320
WIRE -48 416 -288 416
WIRE -16 416 -48 416
WIRE 288 416 288 320
WIRE 288 416 240 416
WIRE 288 432 288 416
WIRE 528 432 528 416
WIRE 560 432 528 432
WIRE -16 480 -192 480
WIRE 336 480 336 400
WIRE 336 480 240 480
WIRE -96 528 -144 528
WIRE -16 528 -96 528
WIRE 288 528 288 496
WIRE 288 528 240 528
WIRE 528 528 528 432
WIRE 528 528 288 528
WIRE 672 528 528 528
WIRE 816 528 752 528
WIRE 1040 528 1040 496
WIRE 1040 528 816 528
WIRE -848 544 -848 16
WIRE -16 576 -48 576
WIRE 320 576 240 576
WIRE 528 640 528 528
WIRE 1040 688 1040 528
WIRE -288 704 -288 416
WIRE -192 704 -192 480
WIRE -96 704 -96 528
WIRE 816 704 816 528
WIRE 320 720 320 576
WIRE 464 720 464 704
WIRE 464 720 320 720
WIRE 480 720 464 720
WIRE -48 816 -48 576
WIRE 528 816 528 736
WIRE 528 816 -48 816
WIRE -288 848 -288 784
WIRE -192 848 -192 784
WIRE -96 848 -96 784
WIRE -848 880 -848 624
WIRE 528 896 528 816
WIRE 816 896 816 768
WIRE 1040 896 1040 768
FLAG -752 320 0
FLAG 528 896 0
FLAG -848 880 0
FLAG -192 848 0
FLAG -288 848 0
FLAG 1040 896 0
FLAG 816 896 0
FLAG 1040 496 V_Out
FLAG 560 432 SM2
FLAG 464 368 GM2
FLAG 576 192 SM1
FLAG 464 144 GM1
FLAG 464 704 GM3
FLAG 560 288 DM1
FLAG -96 848 0
FLAG -144 528 SD
SYMBOL nmos 480 320 R0
SYMATTR InstName M2
SYMATTR Value IRF530
SYMBOL nmos 480 640 R0
WINDOW 3 -46 -24 Left 2
SYMATTR Value IRF530
SYMATTR InstName M3
SYMBOL cap -768 144 R0
WINDOW 0 -23 6 Left 2
WINDOW 3 -51 57 Left 2
SYMATTR InstName C1
SYMATTR Value 100µ
SYMBOL ind 656 544 R270
WINDOW 0 32 56 VTop 2
WINDOW 3 5 56 VBottom 2
SYMATTR InstName L1
SYMATTR Value 22µH
SYMBOL voltage -848 528 R0
WINDOW 123 0 0 Left 2
WINDOW 39 -40 109 Left 2
WINDOW 3 -37 4 Left 2
SYMATTR SpiceLine Rser=0.1
SYMATTR Value 44
SYMATTR InstName V1
SYMBOL schottky 80 336 R270
WINDOW 0 32 32 VTop 2
WINDOW 3 0 32 VBottom 2
SYMATTR InstName D1
SYMATTR Value 1N5818
SYMATTR Description Diode
SYMATTR Type diode
SYMBOL cap 272 432 R0
WINDOW 3 33 71 Left 2
SYMATTR Value 1µ
SYMATTR InstName C3
SYMBOL voltage -288 688 R0
WINDOW 123 0 0 Left 2
WINDOW 39 0 0 Left 2
SYMATTR InstName V2
SYMATTR Value 12
SYMBOL voltage -192 688 R0
WINDOW 3 -88 193 Left 2
WINDOW 123 0 0 Left 2
WINDOW 39 0 0 Left 2
SYMATTR Value PULSE(0 5 0 0 0 4µs 16µs)
SYMATTR InstName V3
SYMBOL res 1024 672 R0
SYMATTR InstName R4
SYMATTR Value 2
SYMBOL cap 800 704 R0
WINDOW 0 -25 5 Left 2
WINDOW 3 -63 57 Left 2
SYMATTR InstName C4
SYMATTR Value 330µ
SYMBOL PowerProducts\\IR2104 112 496 R0
SYMATTR InstName X1
SYMBOL nmos 480 288 M180
WINDOW 0 60 36 Left 2
WINDOW 3 113 42 Left 2
SYMATTR InstName M1
SYMATTR Value IRF530
SYMBOL voltage -96 688 R0
WINDOW 123 0 0 Left 2
WINDOW 39 0 0 Left 2
WINDOW 3 65 53 Left 2
SYMATTR Value PULSE(0 5 0 1µ 1µ 500µs)
SYMATTR InstName V4
SYMBOL res 464 192 R90
WINDOW 0 0 56 VBottom 2
WINDOW 3 32 56 VTop 2
SYMATTR InstName R3
SYMATTR Value 22
SYMBOL res 464 384 R90
WINDOW 0 0 56 VBottom 2
WINDOW 3 32 56 VTop 2
SYMATTR InstName R5
SYMATTR Value 22
TEXT -328 104 Left 2 !.tran 2ms
TEXT 80 584 Left 2 ;IR2104
TEXT 504 288 Left 2 ;D
